LAMMPS (29 Sep 2021 - Update 3)
units	metal
atom_style	full

read_data	mixed.data
Reading data file ...
  orthogonal box = (0.0000000 0.0000000 0.0000000) to (17.171819 17.292452 83.119182)
  reading atoms ...
  864 atoms
Finding 1-2 1-3 1-4 neighbors ...
     0 = max # of 1-2 neighbors
     0 = max # of 1-3 neighbors
     0 = max # of 1-4 neighbors
     1 = max # of special neighbors

pair_style	quip
pair_coeff	* * /ocean/projects/cts180021p/wuziqi/clease/mint-PD/PhaseDiagram-Clease/Liquid/GAP_potential/gap_LiKCl.xml "Potential xml_label=GAP_2021_9_27_0_1_17_37_618" 17 19 3

neighbor	0.3 bin
neigh_modify	delay 10

timestep	0.001
compute	msd all msd
thermo_style	custom step temp pe etotal press vol c_msd[4]
thermo	10
dump	1 all custom 10 xyz-mix.dump type id x y z
dump	2 all custom 10 force-mix.dump type id fx fy fz

fix     1 all nve
run     2000
  update every 1 steps, delay 10 steps, check yes
Step Temp PotEng TotEng Press Volume c_msd[4]
0            0   -7174.3834   -7174.3834   -3403.7864    24681.648            0
Averages over the last 101 of 201 rows, steps 1000 to 2000:
Temp PotEng TotEng Press Volume c_msd[4]
276.448 -7205.23 -7174.39 -1697.58 24681.6 0.91451
Loop time of 1127.71 on 16 procs for 2000 steps with 864 atoms

unfix   1

velocity    all create 675.0 1312343 dist gaussian
fix     2 all npt temp 675.0 675.0 $(100.0*dt) aniso 0.0 1.01325 $(1000.0*dt)
fix     2 all npt temp 675.0 675.0 0.10000000000000000555 aniso 0.0 1.01325 $(1000.0*dt)
fix     2 all npt temp 675.0 675.0 0.10000000000000000555 aniso 0.0 1.01325 1
run     3000
Step Temp PotEng TotEng Press Volume c_msd[4]
2000          675   -7205.7241   -7130.4268    691.59321    24681.648    1.1274187
Averages over the last 151 of 301 rows, steps 3500 to 5000:
Temp PotEng TotEng Press Volume c_msd[4]
677.232 -7148.98 -7073.43 44.3708 24182.9 5.33566
Loop time of 1851.97 on 16 procs for 3000 steps with 864 atoms

unfix   2

fix     3 all npt temp 675.0 675.0 $(100.0*dt) aniso 1.01325 1.01325 $(1000.0*dt)
fix     3 all npt temp 675.0 675.0 0.10000000000000000555 aniso 1.01325 1.01325 $(1000.0*dt)
fix     3 all npt temp 675.0 675.0 0.10000000000000000555 aniso 1.01325 1.01325 1
run     20000
Step Temp PotEng TotEng Press Volume c_msd[4]
5000    698.38354   -7145.1497    -7067.244    391.20666    24341.428    6.1606566
Averages over the last 1001 of 2001 rows, steps 15000 to 25000:
Temp PotEng TotEng Press Volume c_msd[4]
675.965 -7151.27 -7075.87 -4.20957 24291.5 21.0427
Loop time of 12305.8 on 16 procs for 20000 steps with 864 atoms

unfix   3
