LAMMPS (29 Sep 2021 - Update 3)
units	metal
atom_style	full

read_data	structureA.data
Reading data file ...
  orthogonal box = (0.057581895 0.10691832 0.16925191) to (15.914851 15.865514 31.775614)
  reading atoms ...
  432 atoms
  reading velocities ...
  432 velocities
Finding 1-2 1-3 1-4 neighbors ...
     0 = max # of 1-2 neighbors
     0 = max # of 1-3 neighbors
     0 = max # of 1-4 neighbors
     1 = max # of special neighbors

pair_style	quip
pair_coeff	* * /ocean/projects/cts180021p/wuziqi/clease/mint-PD/PhaseDiagram-Clease/Liquid/GAP_potential/gap_LiKCl.xml "Potential xml_label=GAP_2021_9_27_0_1_17_37_618" 17 19 3

neighbor	0.3 bin
neigh_modify	delay 10

timestep	0.001
compute	msd all msd
thermo_style	custom step temp pe etotal press vol c_msd[4]
thermo	10
dump	1 all custom 10 xyz-melt.dump type id x y z
dump	2 all custom 10 force-melt.dump type id fx fy fz

fix     1 all npt temp 300 2000 $(100.0*dt) z 1.01325 1.01325 $(1000.0*dt) couple none
fix     1 all npt temp 300 2000 0.10000000000000000555 z 1.01325 1.01325 $(1000.0*dt) couple none
fix     1 all npt temp 300 2000 0.10000000000000000555 z 1.01325 1.01325 1 couple none
run     5000
  update every 1 steps, delay 10 steps, check yes
Step Temp PotEng TotEng Press Volume c_msd[4]
0    293.74927   -3368.8618   -3352.4967    -760.3917    7898.0599            0
Averages over the last 251 of 501 rows, steps 2500 to 5000:
Temp PotEng TotEng Press Volume c_msd[4]
1543.64 -3254.39 -3168.39 1606.21 10452.9 16.8038
Loop time of 2070.63 on 16 procs for 5000 steps with 432 atoms

unfix   1

fix     2 all npt temp 2000 2000 $(100.0*dt) z 1.01325 1.01325 $(1000.0*dt) couple none
fix     2 all npt temp 2000 2000 0.10000000000000000555 z 1.01325 1.01325 $(1000.0*dt) couple none
fix     2 all npt temp 2000 2000 0.10000000000000000555 z 1.01325 1.01325 1 couple none
run     2000
Step Temp PotEng TotEng Press Volume c_msd[4]
5000    1906.0788   -3218.5063   -3112.3165    869.93641    11081.294    35.155329
Averages over the last 101 of 201 rows, steps 6000 to 7000:
Temp PotEng TotEng Press Volume c_msd[4]
2003.89 -3219.74 -3108.1 267.187 11093.7 55.8003
Loop time of 799.346 on 16 procs for 2000 steps with 432 atoms

unfix   2

fix     3 all npt temp 2000 300 $(100.0*dt) z 1.01325 1.01325 $(1000.0*dt) couple none
fix     3 all npt temp 2000 300 0.10000000000000000555 z 1.01325 1.01325 $(1000.0*dt) couple none
fix     3 all npt temp 2000 300 0.10000000000000000555 z 1.01325 1.01325 1 couple none
run     10000
Step Temp PotEng TotEng Press Volume c_msd[4]
7000    2010.4169   -3219.8103   -3107.8077   -5527.0988    11294.685    63.514748
Averages over the last 501 of 1001 rows, steps 12000 to 17000:
Temp PotEng TotEng Press Volume c_msd[4]
739.871 -3306.21 -3264.99 -484.011 9920.33 108.14
Loop time of 3979.44 on 16 procs for 10000 steps with 432 atoms

unfix   3

fix     4 all npt temp 300 300 $(100.0*dt) z 1.01325 1.01325 $(1000.0*dt) couple none
fix     4 all npt temp 300 300 0.10000000000000000555 z 1.01325 1.01325 $(1000.0*dt) couple none
fix     4 all npt temp 300 300 0.10000000000000000555 z 1.01325 1.01325 1 couple none
run     10000
Step Temp PotEng TotEng Press Volume c_msd[4]
17000    314.38924   -3340.8085   -3323.2936    426.27831    9467.8379    104.76023
Averages over the last 501 of 1001 rows, steps 22000 to 27000:
Temp PotEng TotEng Press Volume c_msd[4]
300.41 -3347.4 -3330.67 -719.357 9324.58 105.838
Loop time of 3776.53 on 16 procs for 10000 steps with 432 atoms

unfix   4

write_data  structureB.data
System init for write_data ...
