LAMMPS (29 Sep 2021 - Update 3)
units	metal
atom_style	full

read_data	structureA.data
Reading data file ...
  orthogonal box = (-0.23984383 -0.30016026 -2.1088637) to (16.931975 16.992292 35.493127)
  reading atoms ...
  432 atoms
  reading velocities ...
  432 velocities
Finding 1-2 1-3 1-4 neighbors ...
     0 = max # of 1-2 neighbors
     0 = max # of 1-3 neighbors
     0 = max # of 1-4 neighbors
     1 = max # of special neighbors

pair_style	quip
pair_coeff	* * /ocean/projects/cts180021p/wuziqi/clease/mint-PD/PhaseDiagram-Clease/Liquid/GAP_potential/gap_LiKCl.xml "Potential xml_label=GAP_2021_9_27_0_1_17_37_618" 17 19 3

neighbor	0.3 bin
neigh_modify	delay 10

timestep	0.001
compute	msd all msd
thermo_style	custom step temp pe etotal press vol c_msd[4]
thermo	10
dump	1 all custom 10 xyz-melt.dump type id x y z
dump	2 all custom 10 force-melt.dump type id fx fy fz

fix     1 all npt temp 300 2000 $(100.0*dt) z 1.01325 1.01325 $(1000.0*dt) couple none
fix     1 all npt temp 300 2000 0.10000000000000000555 z 1.01325 1.01325 $(1000.0*dt) couple none
fix     1 all npt temp 300 2000 0.10000000000000000555 z 1.01325 1.01325 1 couple none
run     5000
  update every 1 steps, delay 10 steps, check yes
Step Temp PotEng TotEng Press Volume c_msd[4]
0    298.40334   -3607.8257   -3591.2013    713.97711    11165.643            0
Averages over the last 251 of 501 rows, steps 2500 to 5000:
Temp PotEng TotEng Press Volume c_msd[4]
1544.5 -3512.84 -3426.8 255.41 12729.4 16.1824
Loop time of 2029.37 on 16 procs for 5000 steps with 432 atoms

unfix   1

fix     2 all npt temp 2000 2000 $(100.0*dt) z 1.01325 1.01325 $(1000.0*dt) couple none
fix     2 all npt temp 2000 2000 0.10000000000000000555 z 1.01325 1.01325 $(1000.0*dt) couple none
fix     2 all npt temp 2000 2000 0.10000000000000000555 z 1.01325 1.01325 1 couple none
run     2000
Step Temp PotEng TotEng Press Volume c_msd[4]
5000    2002.2239   -3488.9184   -3377.3722    462.32164    12904.703    31.089909
Averages over the last 101 of 201 rows, steps 6000 to 7000:
Temp PotEng TotEng Press Volume c_msd[4]
2000.6 -3486.21 -3374.76 1243.2 12885.3 54.1112
Loop time of 767.357 on 16 procs for 2000 steps with 432 atoms

unfix   2

fix     3 all npt temp 2000 300 $(100.0*dt) z 1.01325 1.01325 $(1000.0*dt) couple none
fix     3 all npt temp 2000 300 0.10000000000000000555 z 1.01325 1.01325 $(1000.0*dt) couple none
fix     3 all npt temp 2000 300 0.10000000000000000555 z 1.01325 1.01325 1 couple none
run     10000
Step Temp PotEng TotEng Press Volume c_msd[4]
7000    1893.9896   -3482.9095   -3377.3932    3959.2315    12705.478    59.637129
Averages over the last 501 of 1001 rows, steps 12000 to 17000:
Temp PotEng TotEng Press Volume c_msd[4]
735.295 -3566.45 -3525.48 -1042.17 12376.8 100.925
Loop time of 3753.79 on 16 procs for 10000 steps with 432 atoms

unfix   3

fix     4 all npt temp 300 300 $(100.0*dt) z 1.01325 1.01325 $(1000.0*dt) couple none
fix     4 all npt temp 300 300 0.10000000000000000555 z 1.01325 1.01325 $(1000.0*dt) couple none
fix     4 all npt temp 300 300 0.10000000000000000555 z 1.01325 1.01325 1 couple none
run     10000
Step Temp PotEng TotEng Press Volume c_msd[4]
17000     329.2006   -3598.6866   -3580.3465   -1839.5983    12054.002    102.07075
Averages over the last 501 of 1001 rows, steps 22000 to 27000:
Temp PotEng TotEng Press Volume c_msd[4]
298.866 -3604.47 -3587.82 -1109.83 12088.4 104.549
Loop time of 3586.42 on 16 procs for 10000 steps with 432 atoms

unfix   4

write_data  structureB.data
System init for write_data ...
