LAMMPS (2 Aug 2023)
units          metal
atom_style     full

read_data      initial-solid.data
Reading data file ...
  orthogonal box = (0 0 0) to (100.53988 25.13497 50.269941)
  reading atoms ...
  4096 atoms
Finding 1-2 1-3 1-4 neighbors ...
     0 = max # of 1-2 neighbors
     0 = max # of 1-3 neighbors
     0 = max # of 1-4 neighbors
     1 = max # of special neighbors
velocity       all create 300.0 1312343 dist gaussian

pair_style     chgnet/gpu /ocean/projects/cts180021p/wuziqi/clease/lammps-ASC/potentials/CHGNET
pair_coeff     * * /ocean/projects/cts180021p/wuziqi/chgnet/fine-tunning2/04-12-2024/epoch999_e52_f152_s406_mNA.pth.tar Cl K

variable myZlo equal zlo
variable myZhi equal zhi
variable myMid equal (0+50.2699408000354)/2

region   solid block INF INF INF INF 0 25.1349704000177
region   liquid block INF INF INF INF 25.1349704000177 50.2699408000354
group    gSolid region solid
2048 atoms in group gSolid
group    gLiquid region liquid
2048 atoms in group gLiquid

neighbor        0.3 bin
neigh_modify    delay 10

timestep        0.0005
compute msd all msd
thermo_style    custom step temp pe etotal press vol c_msd[4]
thermo          10
dump            1 all custom 10 xyz-npt.dump type id x y z
#dump           2 all custom 10 force-npt.dump type id fx fy fz

fix             1 all npt temp 300.0 300.0 $(100.0*dt) aniso 1.01325 1.01325 $(1000.0*dt)
fix             1 all npt temp 300.0 300.0 0.050000000000000002776 aniso 1.01325 1.01325 $(1000.0*dt)
fix             1 all npt temp 300.0 300.0 0.050000000000000002776 aniso 1.01325 1.01325 0.5
run             10000
Step          Temp          PotEng         TotEng         Press          Volume        c_msd[4]
0   300           -15204.41      -15045.614      10035.548      127035.51      0
Averages over the last 501 of 1001 rows, steps 5000 to 10000:
Temp PotEng TotEng Press Volume c_msd[4]
300.227 -15049.2 -14890.2 4.89222 138251 1.04997
Loop time of 7660.52 on 1 procs for 10000 steps with 4096 atoms

unfix           1

fix             2 gLiquid npt temp 300 1500 $(100.0*dt) z 1.01325 1.01325 $(1000.0*dt) couple none
fix             2 gLiquid npt temp 300 1500 0.050000000000000002776 z 1.01325 1.01325 $(1000.0*dt) couple none
fix             2 gLiquid npt temp 300 1500 0.050000000000000002776 z 1.01325 1.01325 0.5 couple none
run             10000
Step          Temp          PotEng         TotEng         Press          Volume        c_msd[4]
10000   302.09542     -15050.396     -14890.491     -105.87192      138366.34      1.1061445
Averages over the last 439 of 878 rows, steps 14390 to 18770:
Temp PotEng TotEng Press Volume c_msd[4]
1069.41 -14432.7 -13866.7 3050.28 157165 10.2339
     18780   1348.5797
