LAMMPS (2 Aug 2023)
units          metal
atom_style     full

read_data      initial-solid.data
Reading data file ...
  orthogonal box = (0 0 0) to (24.930612 24.930612 74.791837)
  reading atoms ...
  1536 atoms
Finding 1-2 1-3 1-4 neighbors ...
     0 = max # of 1-2 neighbors
     0 = max # of 1-3 neighbors
     0 = max # of 1-4 neighbors
     1 = max # of special neighbors
velocity       all create 1 1312343 dist gaussian

pair_style     chgnet/gpu /nfs/turbo/coe-venkvis/ziqiw-turbo/LAMMPSs/lammps-ASC/potentials/CHGNET
pair_coeff     * * 0.3.0 Cl K Li

variable myZlo equal zlo
variable myZhi equal zhi
variable myMid equal (0+74.7918367346939)/2

region   solid block INF INF INF INF 0 37.395918367347
region   liquid block INF INF INF INF 37.395918367347 74.7918367346939
group    gSolid region solid
832 atoms in group gSolid
group    gLiquid region liquid
704 atoms in group gLiquid

neighbor        0.3 bin
neigh_modify    delay 10

timestep        0.001
compute msd all msd
thermo_style    custom step temp pe etotal press vol c_msd[4]
thermo          10
dump            1 all custom 10 xyz-npt.dump type id x y z
#dump           2 all custom 10 force-npt.dump type id fx fy fz

fix             1 all npt temp 1 100.0 $(100.0*dt) aniso 1.01325 1.01325 $(1000.0*dt)
fix             1 all npt temp 1 100.0 0.10000000000000000555 aniso 1.01325 1.01325 $(1000.0*dt)
fix             1 all npt temp 1 100.0 0.10000000000000000555 aniso 1.01325 1.01325 1
run             10000
Step          Temp          PotEng         TotEng         Press          Volume        c_msd[4]
0   1             -5677.2762     -5677.0778     -107.02506      46485.776      0
Averages over the last 501 of 1001 rows, steps 5000 to 10000:
Temp PotEng TotEng Press Volume c_msd[4]
75.2758 -5736.52 -5721.58 1.71117 48284.1 0.389671
Loop time of 1935.76 on 1 procs for 10000 steps with 1536 atoms

unfix           1

fix             2 all npt temp 100.0 100.0 $(100.0*dt) aniso 1.01325 1.01325 $(1000.0*dt)
fix             2 all npt temp 100.0 100.0 0.10000000000000000555 aniso 1.01325 1.01325 $(1000.0*dt)
fix             2 all npt temp 100.0 100.0 0.10000000000000000555 aniso 1.01325 1.01325 1
run             10000
Step          Temp          PotEng         TotEng         Press          Volume        c_msd[4]
10000   100.9736      -5732.5833     -5712.5486      518.63961      48367.203      0.39166712
Averages over the last 501 of 1001 rows, steps 15000 to 20000:
Temp PotEng TotEng Press Volume c_msd[4]
99.9249 -5732.67 -5712.85 1.7884 48528.6 0.453399
Loop time of 1965 on 1 procs for 10000 steps with 1536 atoms

unfix           2

fix             3 gLiquid npt temp 100.0 1500 $(100.0*dt) z 1.01325 1.01325 $(1000.0*dt) couple none
fix             3 gLiquid npt temp 100.0 1500 0.10000000000000000555 z 1.01325 1.01325 $(1000.0*dt) couple none
fix             3 gLiquid npt temp 100.0 1500 0.10000000000000000555 z 1.01325 1.01325 1 couple none
run             20000
Step          Temp          PotEng         TotEng         Press          Volume        c_msd[4]
20000   103.17272     -5733.3083     -5712.8374     -28.302006      48479.095      0.43532847
Averages over the last 1001 of 2001 rows, steps 30000 to 40000:
Temp PotEng TotEng Press Volume c_msd[4]
1145.23 -5455.36 -5228.12 3141.86 55766.3 54.0088
Loop time of 3977.97 on 1 procs for 20000 steps with 1536 atoms

unfix           3

write_data      structure.ready.data
System init for write_data ...

write_restart   structure.ready
System init for write_restart ...
