LAMMPS (2 Aug 2023)
read_restart    ../structure.ready
Reading restart file ...
  restart file = 2 Aug 2023, LAMMPS = 2 Aug 2023
  restoring atom style full from restart
  orthogonal box = (-0.38706367 -0.34859865 -23.970409) to (20.724042 20.685577 84.981345)
  pair style chgnet/gpu stores no restart info
  1536 atoms
Finding 1-2 1-3 1-4 neighbors ...
     0 = max # of 1-2 neighbors
     0 = max # of 1-3 neighbors
     0 = max # of 1-4 neighbors
     1 = max # of special neighbors
  read_restart CPU = 0.084 seconds

pair_style      chgnet/gpu /ocean/projects/cts180021p/wuziqi/clease/lammps-ASC/potentials/CHGNET
pair_coeff      * * MPtrj-efsm Cl Li

neighbor        0.3 bin
neigh_modify    delay 10

timestep	    0.001
compute	        msd all msd
  fix style: STORE/ATOM, fix ID: msd_COMPUTE_STORE
thermo_style	custom step temp pe etotal press vol c_msd[4]
thermo	        10
dump	        1 all custom 10 xyz-mix.dump type id x y z
dump	        2 all custom 10 force-mix.dump type id fx fy fz

fix             2 gLiquid npt temp 1500 1200.0 $(100.0*dt) z 1.01325 1.01325 $(1000.0*dt) couple none
fix             2 gLiquid npt temp 1500 1200.0 0.10000000000000000555 z 1.01325 1.01325 $(1000.0*dt) couple none
fix             2 gLiquid npt temp 1500 1200.0 0.10000000000000000555 z 1.01325 1.01325 1 couple none
run             10000
All restart file peratom fix info was re-assigned
Step          Temp          PotEng         TotEng         Press          Volume        c_msd[4]
20000   1521.5156     -5661.2355     -5359.345      -7767.4025      48380.541      223.43501
Averages over the last 501 of 1001 rows, steps 25000 to 30000:
Temp PotEng TotEng Press Volume c_msd[4]
1280.44 -5699.1 -5445.04 -9100.48 47037 329.691
Loop time of 4485.83 on 1 procs for 10000 steps with 1536 atoms

unfix           2

fix             3 all npt temp 1200.0 1200.0 $(100.0*dt) aniso 1.01325 1.01325 $(1000.0*dt)
fix             3 all npt temp 1200.0 1200.0 0.10000000000000000555 aniso 1.01325 1.01325 $(1000.0*dt)
fix             3 all npt temp 1200.0 1200.0 0.10000000000000000555 aniso 1.01325 1.01325 1
run             20000
Step          Temp          PotEng         TotEng         Press          Volume        c_msd[4]
30000   1217.5805     -5722.9175     -5481.3321     -10090.647      46249.498      349.24262
Averages over the last 1001 of 2001 rows, steps 40000 to 50000:
Temp PotEng TotEng Press Volume c_msd[4]
1200.24 -5730.14 -5492 17.5599 47101.7 794.55
Loop time of 8625.4 on 1 procs for 20000 steps with 1536 atoms

unfix           3

write_data      structure.end.data
System init for write_data ...
write_restart   structure.end
System init for write_restart ...
