LAMMPS (29 Sep 2021 - Update 3)
units	metal
atom_style	full

read_data	structureA.data
Reading data file ...
  orthogonal box = (-0.36051560 -0.29834235 -0.62082431) to (18.132195 18.070022 36.164184)
  reading atoms ...
  432 atoms
  reading velocities ...
  432 velocities
Finding 1-2 1-3 1-4 neighbors ...
     0 = max # of 1-2 neighbors
     0 = max # of 1-3 neighbors
     0 = max # of 1-4 neighbors
     1 = max # of special neighbors

pair_style	quip
pair_coeff	* * /ocean/projects/cts180021p/wuziqi/clease/mint-PD/PhaseDiagram-Clease/Liquid/GAP_potential/gap_LiKCl.xml "Potential xml_label=GAP_2021_9_27_0_1_17_37_618" 17 19 3

neighbor	0.3 bin
neigh_modify	delay 10

timestep	0.001
compute	msd all msd
thermo_style	custom step temp pe etotal press vol c_msd[4]
thermo	10
dump	1 all custom 10 xyz-melt.dump type id x y z
dump	2 all custom 10 force-melt.dump type id fx fy fz

fix     1 all npt temp 300 2000 $(100.0*dt) z 1.01325 1.01325 $(1000.0*dt) couple none
fix     1 all npt temp 300 2000 0.10000000000000000555 z 1.01325 1.01325 $(1000.0*dt) couple none
fix     1 all npt temp 300 2000 0.10000000000000000555 z 1.01325 1.01325 1 couple none
run     5000
  update every 1 steps, delay 10 steps, check yes
Step Temp PotEng TotEng Press Volume c_msd[4]
0    303.26176   -4012.7146   -3995.8196   -423.86845    12495.163            0
Averages over the last 251 of 501 rows, steps 2500 to 5000:
Temp PotEng TotEng Press Volume c_msd[4]
1550.69 -3916.06 -3829.67 285.355 15442.3 20.1228
Loop time of 1138.86 on 16 procs for 5000 steps with 432 atoms

unfix   1

fix     2 all npt temp 2000 2000 $(100.0*dt) z 1.01325 1.01325 $(1000.0*dt) couple none
fix     2 all npt temp 2000 2000 0.10000000000000000555 z 1.01325 1.01325 $(1000.0*dt) couple none
fix     2 all npt temp 2000 2000 0.10000000000000000555 z 1.01325 1.01325 1 couple none
run     2000
Step Temp PotEng TotEng Press Volume c_msd[4]
5000     1981.282   -3888.1589   -3777.7795    775.68451    16060.129    38.900094
Averages over the last 101 of 201 rows, steps 6000 to 7000:
Temp PotEng TotEng Press Volume c_msd[4]
1953.08 -3887.53 -3778.72 797.02 15739.7 59.9341
Loop time of 448.813 on 16 procs for 2000 steps with 432 atoms

unfix   2

fix     3 all npt temp 2000 300 $(100.0*dt) z 1.01325 1.01325 $(1000.0*dt) couple none
fix     3 all npt temp 2000 300 0.10000000000000000555 z 1.01325 1.01325 $(1000.0*dt) couple none
fix     3 all npt temp 2000 300 0.10000000000000000555 z 1.01325 1.01325 1 couple none
run     10000
Step Temp PotEng TotEng Press Volume c_msd[4]
7000    2028.5183   -3883.5333   -3770.5223    343.87758    16075.424    67.252064
Averages over the last 501 of 1001 rows, steps 12000 to 17000:
Temp PotEng TotEng Press Volume c_msd[4]
737.411 -3969.29 -3928.21 -330.001 14741.6 104.322
Loop time of 2201.51 on 16 procs for 10000 steps with 432 atoms

unfix   3

fix     4 all npt temp 300 300 $(100.0*dt) z 1.01325 1.01325 $(1000.0*dt) couple none
fix     4 all npt temp 300 300 0.10000000000000000555 z 1.01325 1.01325 $(1000.0*dt) couple none
fix     4 all npt temp 300 300 0.10000000000000000555 z 1.01325 1.01325 1 couple none
run     10000
Step Temp PotEng TotEng Press Volume c_msd[4]
17000    324.86936   -4001.0821   -3982.9832   -24.770311    14155.208    103.07417
Averages over the last 501 of 1001 rows, steps 22000 to 27000:
Temp PotEng TotEng Press Volume c_msd[4]
300.281 -4008.77 -3992.04 -281.616 13979.2 102.884
Loop time of 2162.01 on 16 procs for 10000 steps with 432 atoms

unfix   4

write_data  structureB.data
System init for write_data ...
