LAMMPS (2 Aug 2023)
read_restart    ../structure.ready
Reading restart file ...
  restart file = 2 Aug 2023, LAMMPS = 2 Aug 2023
  restoring atom style full from restart
  orthogonal box = (-1.043091 -0.71039117 -9.0393714) to (23.779066 23.446366 77.247295)
  pair style chgnet/gpu stores no restart info
  1536 atoms
Finding 1-2 1-3 1-4 neighbors ...
     0 = max # of 1-2 neighbors
     0 = max # of 1-3 neighbors
     0 = max # of 1-4 neighbors
     1 = max # of special neighbors
  read_restart CPU = 0.104 seconds

pair_style      chgnet/gpu /ocean/projects/cts180021p/wuziqi/clease/lammps-ASC/potentials/CHGNET
pair_coeff      * * MPtrj-efsm Cl K Li

neighbor        0.3 bin
neigh_modify    delay 10

timestep	    0.001
compute	        msd all msd
  fix style: STORE/ATOM, fix ID: msd_COMPUTE_STORE
thermo_style	custom step temp pe etotal press vol c_msd[4]
thermo	        10
dump	        1 all custom 10 xyz-mix.dump type id x y z
dump	        2 all custom 10 force-mix.dump type id fx fy fz

fix             2 gLiquid npt temp 1500 450.0 $(100.0*dt) z 1.01325 1.01325 $(1000.0*dt) couple none
fix             2 gLiquid npt temp 1500 450.0 0.10000000000000000555 z 1.01325 1.01325 $(1000.0*dt) couple none
fix             2 gLiquid npt temp 1500 450.0 0.10000000000000000555 z 1.01325 1.01325 1 couple none
run             10000
All restart file peratom fix info was re-assigned
Step          Temp          PotEng         TotEng         Press          Volume        c_msd[4]
20000   1497.4781     -5523.0941     -5225.973       3591.3147      51739.452      56.877471
Averages over the last 501 of 1001 rows, steps 25000 to 30000:
Temp PotEng TotEng Press Volume c_msd[4]
725.808 -5685.9 -5541.89 1826.26 47726.9 95.7464
Loop time of 3721.04 on 1 procs for 10000 steps with 1536 atoms

unfix           2

fix             3 all npt temp 450.0 450.0 $(100.0*dt) aniso 1.01325 1.01325 $(1000.0*dt)
fix             3 all npt temp 450.0 450.0 0.10000000000000000555 aniso 1.01325 1.01325 $(1000.0*dt)
fix             3 all npt temp 450.0 450.0 0.10000000000000000555 aniso 1.01325 1.01325 1
run             20000
Step          Temp          PotEng         TotEng         Press          Volume        c_msd[4]
30000   465.20528     -5743.8464     -5651.543       575.14504      46642.486      96.058693
Averages over the last 1001 of 2001 rows, steps 40000 to 50000:
Temp PotEng TotEng Press Volume c_msd[4]
450.551 -5758.66 -5669.26 -0.744001 47330 113.028
Loop time of 7751.97 on 1 procs for 20000 steps with 1536 atoms

unfix           3

write_data      structure.end.data
System init for write_data ...
write_restart   structure.end
System init for write_restart ...
