LAMMPS (29 Sep 2021 - Update 3)
units	metal
atom_style	full

read_data	mixed.data
Reading data file ...
  orthogonal box = (0.0000000 0.0000000 0.0000000) to (15.866041 15.852264 77.123517)
  reading atoms ...
  864 atoms
Finding 1-2 1-3 1-4 neighbors ...
     0 = max # of 1-2 neighbors
     0 = max # of 1-3 neighbors
     0 = max # of 1-4 neighbors
     1 = max # of special neighbors

pair_style	quip
pair_coeff	* * /ocean/projects/cts180021p/wuziqi/clease/mint-PD/PhaseDiagram-Clease/Liquid/GAP_potential/gap_LiKCl.xml "Potential xml_label=GAP_2021_9_27_0_1_17_37_618" 17 19 3

neighbor	0.3 bin
neigh_modify	delay 10

timestep	0.001
compute	msd all msd
thermo_style	custom step temp pe etotal press vol c_msd[4]
thermo	10
dump	1 all custom 10 xyz-mix.dump type id x y z
dump	2 all custom 10 force-mix.dump type id fx fy fz

fix     1 all nve
run     2000
  update every 1 steps, delay 10 steps, check yes
Step Temp PotEng TotEng Press Volume c_msd[4]
0            0   -8878.9247   -8878.9247   -11708.833    19397.542            0
Averages over the last 101 of 201 rows, steps 1000 to 2000:
Temp PotEng TotEng Press Volume c_msd[4]
455.935 -8929.81 -8878.95 -17622.7 19397.5 3.18816
Loop time of 1412.79 on 16 procs for 2000 steps with 864 atoms

unfix   1

velocity    all create 712.5 1312343 dist gaussian
fix     2 all npt temp 712.5 712.5 $(100.0*dt) aniso 0.0 1.01325 $(1000.0*dt)
fix     2 all npt temp 712.5 712.5 0.10000000000000000555 aniso 0.0 1.01325 $(1000.0*dt)
fix     2 all npt temp 712.5 712.5 0.10000000000000000555 aniso 0.0 1.01325 1
run     3000
Step Temp PotEng TotEng Press Volume c_msd[4]
2000        712.5   -8933.0707   -8853.5902   -19737.807    19397.542    4.2770463
Averages over the last 151 of 301 rows, steps 3500 to 5000:
Temp PotEng TotEng Press Volume c_msd[4]
775.628 -9066.99 -8980.47 42.2492 17164.3 9.17871
Loop time of 2109.16 on 16 procs for 3000 steps with 864 atoms

unfix   2

fix     3 all npt temp 712.5 712.5 $(100.0*dt) aniso 1.01325 1.01325 $(1000.0*dt)
fix     3 all npt temp 712.5 712.5 0.10000000000000000555 aniso 1.01325 1.01325 $(1000.0*dt)
fix     3 all npt temp 712.5 712.5 0.10000000000000000555 aniso 1.01325 1.01325 1
run     20000
Step Temp PotEng TotEng Press Volume c_msd[4]
5000     700.4756   -9141.4328   -9063.2937   -2070.3218     16999.63    9.6193839
Averages over the last 1001 of 2001 rows, steps 15000 to 25000:
Temp PotEng TotEng Press Volume c_msd[4]
711.708 -9198.69 -9119.29 -17.5625 17506.9 14.5817
Loop time of 14268.9 on 16 procs for 20000 steps with 864 atoms

unfix   3
