LAMMPS (29 Sep 2021 - Update 3)
units	metal
atom_style	full

read_data	mixed.data
Reading data file ...
  orthogonal box = (0.0000000 0.0000000 0.0000000) to (16.534670 17.767358 74.594796)
  reading atoms ...
  864 atoms
Finding 1-2 1-3 1-4 neighbors ...
     0 = max # of 1-2 neighbors
     0 = max # of 1-3 neighbors
     0 = max # of 1-4 neighbors
     1 = max # of special neighbors

pair_style	quip
pair_coeff	* * /ocean/projects/cts180021p/wuziqi/clease/mint-PD/PhaseDiagram-Clease/Liquid/GAP_potential/gap_LiKCl.xml "Potential xml_label=GAP_2021_9_27_0_1_17_37_618" 17 19 3

neighbor	0.3 bin
neigh_modify	delay 10

timestep	0.001
compute	msd all msd
thermo_style	custom step temp pe etotal press vol c_msd[4]
thermo	10
dump	1 all custom 10 xyz-mix.dump type id x y z
dump	2 all custom 10 force-mix.dump type id fx fy fz

fix     1 all nve
run     2000
  update every 1 steps, delay 10 steps, check yes
Step Temp PotEng TotEng Press Volume c_msd[4]
0            0   -8413.4292   -8413.4292   -12531.916    21914.265            0
Averages over the last 101 of 201 rows, steps 1000 to 2000:
Temp PotEng TotEng Press Volume c_msd[4]
416.272 -8459.88 -8413.44 -13088.8 21914.3 2.01566
Loop time of 1327.31 on 16 procs for 2000 steps with 864 atoms

unfix   1

velocity    all create 412.5 1312343 dist gaussian
fix     2 all npt temp 412.5 412.5 $(100.0*dt) aniso 0.0 1.01325 $(1000.0*dt)
fix     2 all npt temp 412.5 412.5 0.10000000000000000555 aniso 0.0 1.01325 $(1000.0*dt)
fix     2 all npt temp 412.5 412.5 0.10000000000000000555 aniso 0.0 1.01325 1
run     3000
Step Temp PotEng TotEng Press Volume c_msd[4]
2000        412.5   -8463.1089   -8417.0939   -13217.055    21914.265    2.7384799
Averages over the last 151 of 301 rows, steps 3500 to 5000:
Temp PotEng TotEng Press Volume c_msd[4]
432.456 -8549.89 -8501.64 -112.503 19610.9 6.88733
Loop time of 2122.86 on 16 procs for 3000 steps with 864 atoms

unfix   2

fix     3 all npt temp 412.5 412.5 $(100.0*dt) aniso 1.01325 1.01325 $(1000.0*dt)
fix     3 all npt temp 412.5 412.5 0.10000000000000000555 aniso 1.01325 1.01325 $(1000.0*dt)
fix     3 all npt temp 412.5 412.5 0.10000000000000000555 aniso 1.01325 1.01325 1
run     20000
Step Temp PotEng TotEng Press Volume c_msd[4]
5000    458.14881   -8587.1776   -8536.0704   -736.12193    18757.196    8.4474142
Averages over the last 1001 of 2001 rows, steps 15000 to 25000:
Temp PotEng TotEng Press Volume c_msd[4]
412.593 -8833.67 -8787.64 -4.267 18114.9 50.5101
Loop time of 14145.2 on 16 procs for 20000 steps with 864 atoms

unfix   3
