LAMMPS (29 Sep 2021 - Update 3)
units	metal
atom_style	full

read_data	structureA.data
Reading data file ...
  orthogonal box = (1.3126687 1.3195570 2.6243092) to (17.178710 17.171821 34.358448)
  reading atoms ...
  432 atoms
  reading velocities ...
  432 velocities
Finding 1-2 1-3 1-4 neighbors ...
     0 = max # of 1-2 neighbors
     0 = max # of 1-3 neighbors
     0 = max # of 1-4 neighbors
     1 = max # of special neighbors

pair_style	quip
pair_coeff	* * /ocean/projects/cts180021p/wuziqi/clease/mint-PD/PhaseDiagram-Clease/Liquid/GAP_potential/gap_LiKCl.xml "Potential xml_label=GAP_2021_9_27_0_1_17_37_618" 17 19 3

neighbor	0.3 bin
neigh_modify	delay 10

timestep	0.001
compute	msd all msd
thermo_style	custom step temp pe etotal press vol c_msd[4]
thermo	10
dump	1 all custom 10 xyz-melt.dump type id x y z
dump	2 all custom 10 force-melt.dump type id fx fy fz

fix     1 all npt temp 300 2000 $(100.0*dt) z 1.01325 1.01325 $(1000.0*dt) couple none
fix     1 all npt temp 300 2000 0.10000000000000000555 z 1.01325 1.01325 $(1000.0*dt) couple none
fix     1 all npt temp 300 2000 0.10000000000000000555 z 1.01325 1.01325 1 couple none
run     5000
  update every 1 steps, delay 10 steps, check yes
Step Temp PotEng TotEng Press Volume c_msd[4]
0    306.18835   -4393.3083   -4376.2502    465.06622    7981.5381            0
Averages over the last 251 of 501 rows, steps 2500 to 5000:
Temp PotEng TotEng Press Volume c_msd[4]
1541.26 -4278.4 -4192.53 6547.47 10395.5 10.3681
Loop time of 2130.53 on 16 procs for 5000 steps with 432 atoms

unfix   1

fix     2 all npt temp 2000 2000 $(100.0*dt) z 1.01325 1.01325 $(1000.0*dt) couple none
fix     2 all npt temp 2000 2000 0.10000000000000000555 z 1.01325 1.01325 $(1000.0*dt) couple none
fix     2 all npt temp 2000 2000 0.10000000000000000555 z 1.01325 1.01325 1 couple none
run     2000
Step Temp PotEng TotEng Press Volume c_msd[4]
5000    2153.2851   -4282.5643   -4162.6024   -6432.1585    11637.772    25.144784
Averages over the last 101 of 201 rows, steps 6000 to 7000:
Temp PotEng TotEng Press Volume c_msd[4]
2016.01 -4323.37 -4211.06 -11882.2 11881 41.2504
Loop time of 944.16 on 16 procs for 2000 steps with 432 atoms

unfix   2

fix     3 all npt temp 2000 300 $(100.0*dt) z 1.01325 1.01325 $(1000.0*dt) couple none
fix     3 all npt temp 2000 300 0.10000000000000000555 z 1.01325 1.01325 $(1000.0*dt) couple none
fix     3 all npt temp 2000 300 0.10000000000000000555 z 1.01325 1.01325 1 couple none
run     10000
Step Temp PotEng TotEng Press Volume c_msd[4]
7000    2215.2621   -4331.2713   -4207.8565   -6971.0462    11800.502    44.396952
Averages over the last 501 of 1001 rows, steps 12000 to 17000:
Temp PotEng TotEng Press Volume c_msd[4]
740.455 -4536.22 -4494.97 -23504.1 10529.6 53.6561
Loop time of 4632.64 on 16 procs for 10000 steps with 432 atoms

unfix   3

fix     4 all npt temp 300 300 $(100.0*dt) z 1.01325 1.01325 $(1000.0*dt) couple none
fix     4 all npt temp 300 300 0.10000000000000000555 z 1.01325 1.01325 $(1000.0*dt) couple none
fix     4 all npt temp 300 300 0.10000000000000000555 z 1.01325 1.01325 1 couple none
run     10000
Step Temp PotEng TotEng Press Volume c_msd[4]
17000    320.35917    -4569.719   -4551.8714    -21916.01    10287.997    52.525332
Averages over the last 501 of 1001 rows, steps 22000 to 27000:
Temp PotEng TotEng Press Volume c_msd[4]
301.333 -4575.5 -4558.71 -26586.2 10203.1 52.6538
Loop time of 4032.6 on 16 procs for 10000 steps with 432 atoms

unfix   4

write_data  structureB.data
System init for write_data ...
