LAMMPS (2 Aug 2023)
units          metal
atom_style     full

read_data      initial-solid.data
Reading data file ...
  orthogonal box = (0 0 0) to (23.335724 23.335724 70.007171)
  reading atoms ...
  1536 atoms
Finding 1-2 1-3 1-4 neighbors ...
     0 = max # of 1-2 neighbors
     0 = max # of 1-3 neighbors
     0 = max # of 1-4 neighbors
     1 = max # of special neighbors
velocity       all create 300.0 1312343 dist gaussian

pair_style     chgnet/gpu /ocean/projects/cts180021p/wuziqi/clease/lammps-ASC/potentials/CHGNET
pair_coeff     * * /ocean/projects/cts180021p/wuziqi/chgnet/fine-tunning2/04-12-2024/epoch999_e52_f152_s406_mNA.pth.tar Cl K Li

variable myZlo equal zlo
variable myZhi equal zhi
variable myMid equal (0+70.0071705514811)/2

region   solid block INF INF INF INF 0 35.0035852757405
region   liquid block INF INF INF INF 35.0035852757405 70.0071705514811
group    gSolid region solid
768 atoms in group gSolid
group    gLiquid region liquid
768 atoms in group gLiquid

neighbor        0.3 bin
neigh_modify    delay 10

timestep        0.0005
compute msd all msd
thermo_style    custom step temp pe etotal press vol c_msd[4]
thermo          10
dump            1 all custom 10 xyz-npt.dump type id x y z
#dump           2 all custom 10 force-npt.dump type id fx fy fz

fix             1 all npt temp 300.0 300.0 $(100.0*dt) aniso 1.01325 1.01325 $(1000.0*dt)
fix             1 all npt temp 300.0 300.0 0.050000000000000002776 aniso 1.01325 1.01325 $(1000.0*dt)
fix             1 all npt temp 300.0 300.0 0.050000000000000002776 aniso 1.01325 1.01325 0.5
run             10000
Step          Temp          PotEng         TotEng         Press          Volume        c_msd[4]
0   300           -5614.9618     -5555.4375      31766.126      38122.824      0
Averages over the last 501 of 1001 rows, steps 5000 to 10000:
Temp PotEng TotEng Press Volume c_msd[4]
299.588 -5767.57 -5708.13 -3.89313 46080.6 7.41196
Loop time of 3932.05 on 1 procs for 10000 steps with 1536 atoms

unfix           1

fix             2 gLiquid npt temp 300 1500 $(100.0*dt) z 1.01325 1.01325 $(1000.0*dt) couple none
fix             2 gLiquid npt temp 300 1500 0.050000000000000002776 z 1.01325 1.01325 $(1000.0*dt) couple none
fix             2 gLiquid npt temp 300 1500 0.050000000000000002776 z 1.01325 1.01325 0.5 couple none
run             10000
Step          Temp          PotEng         TotEng         Press          Volume        c_msd[4]
10000   302.00805     -5768.6016     -5708.6788     -102.9689       46032.783      7.7543292
Averages over the last 501 of 1001 rows, steps 15000 to 20000:
Temp PotEng TotEng Press Volume c_msd[4]
1192.19 -5533.73 -5297.18 3199.15 51989.7 40.4335
Loop time of 3362.6 on 1 procs for 10000 steps with 1536 atoms

unfix           2

write_data      structure.ready.data
System init for write_data ...

write_restart   structure.ready
System init for write_restart ...
