LAMMPS (29 Sep 2021 - Update 3)
units	metal
atom_style	full

read_data	structureA.data
Reading data file ...
  orthogonal box = (0.79842954 0.18208550 -0.12238328) to (17.333100 17.949444 36.385441)
  reading atoms ...
  432 atoms
  reading velocities ...
  432 velocities
Finding 1-2 1-3 1-4 neighbors ...
     0 = max # of 1-2 neighbors
     0 = max # of 1-3 neighbors
     0 = max # of 1-4 neighbors
     1 = max # of special neighbors

pair_style	quip
pair_coeff	* * /ocean/projects/cts180021p/wuziqi/clease/mint-PD/PhaseDiagram-Clease/Liquid/GAP_potential/gap_LiKCl.xml "Potential xml_label=GAP_2021_9_27_0_1_17_37_618" 17 19 3

neighbor	0.3 bin
neigh_modify	delay 10

timestep	0.001
compute	msd all msd
thermo_style	custom step temp pe etotal press vol c_msd[4]
thermo	10
dump	1 all custom 10 xyz-melt.dump type id x y z
dump	2 all custom 10 force-melt.dump type id fx fy fz

fix     1 all npt temp 300 2000 $(100.0*dt) z 1.01325 1.01325 $(1000.0*dt) couple none
fix     1 all npt temp 300 2000 0.10000000000000000555 z 1.01325 1.01325 $(1000.0*dt) couple none
fix     1 all npt temp 300 2000 0.10000000000000000555 z 1.01325 1.01325 1 couple none
run     5000
  update every 1 steps, delay 10 steps, check yes
Step Temp PotEng TotEng Press Volume c_msd[4]
0    288.94399   -4172.4518   -4156.3544   -512.36848    10725.174            0
Averages over the last 251 of 501 rows, steps 2500 to 5000:
Temp PotEng TotEng Press Volume c_msd[4]
1553.89 -4074.25 -3987.68 -506.851 14057.8 19.0424
Loop time of 1950.32 on 16 procs for 5000 steps with 432 atoms

unfix   1

fix     2 all npt temp 2000 2000 $(100.0*dt) z 1.01325 1.01325 $(1000.0*dt) couple none
fix     2 all npt temp 2000 2000 0.10000000000000000555 z 1.01325 1.01325 $(1000.0*dt) couple none
fix     2 all npt temp 2000 2000 0.10000000000000000555 z 1.01325 1.01325 1 couple none
run     2000
Step Temp PotEng TotEng Press Volume c_msd[4]
5000    1933.2919   -4044.7995   -3937.0936   -2539.8611     15335.66    39.981665
Averages over the last 101 of 201 rows, steps 6000 to 7000:
Temp PotEng TotEng Press Volume c_msd[4]
1980.64 -4032.31 -3921.96 -172.958 15346.5 63.3813
Loop time of 774.06 on 16 procs for 2000 steps with 432 atoms

unfix   2

fix     3 all npt temp 2000 300 $(100.0*dt) z 1.01325 1.01325 $(1000.0*dt) couple none
fix     3 all npt temp 2000 300 0.10000000000000000555 z 1.01325 1.01325 $(1000.0*dt) couple none
fix     3 all npt temp 2000 300 0.10000000000000000555 z 1.01325 1.01325 1 couple none
run     10000
Step Temp PotEng TotEng Press Volume c_msd[4]
7000    2043.2725    -4029.953     -3916.12   -1725.4759    15713.206    75.215466
Averages over the last 501 of 1001 rows, steps 12000 to 17000:
Temp PotEng TotEng Press Volume c_msd[4]
738.844 -4102.74 -4061.57 -723.165 14398.7 130.262
Loop time of 3823.14 on 16 procs for 10000 steps with 432 atoms

unfix   3

fix     4 all npt temp 300 300 $(100.0*dt) z 1.01325 1.01325 $(1000.0*dt) couple none
fix     4 all npt temp 300 300 0.10000000000000000555 z 1.01325 1.01325 $(1000.0*dt) couple none
fix     4 all npt temp 300 300 0.10000000000000000555 z 1.01325 1.01325 1 couple none
run     10000
Step Temp PotEng TotEng Press Volume c_msd[4]
17000    346.44934   -4140.6921    -4121.391   -3478.8983    13101.427    118.87673
Averages over the last 501 of 1001 rows, steps 22000 to 27000:
Temp PotEng TotEng Press Volume c_msd[4]
304.678 -4264.43 -4247.46 -18704.3 10148.3 118.678
Loop time of 3937.88 on 16 procs for 10000 steps with 432 atoms

unfix   4

write_data  structureB.data
System init for write_data ...
