LAMMPS (29 Sep 2021 - Update 3)
units	metal
atom_style	full

read_data	mixed.data
Reading data file ...
  orthogonal box = (0.0000000 0.0000000 0.0000000) to (15.857269 15.758596 73.856324)
  reading atoms ...
  864 atoms
Finding 1-2 1-3 1-4 neighbors ...
     0 = max # of 1-2 neighbors
     0 = max # of 1-3 neighbors
     0 = max # of 1-4 neighbors
     1 = max # of special neighbors

pair_style	quip
pair_coeff	* * /ocean/projects/cts180021p/wuziqi/clease/mint-PD/PhaseDiagram-Clease/Liquid/GAP_potential/gap_LiKCl.xml "Potential xml_label=GAP_2021_9_27_0_1_17_37_618" 17 19 3

neighbor	0.3 bin
neigh_modify	delay 10

timestep	0.001
compute	msd all msd
thermo_style	custom step temp pe etotal press vol c_msd[4]
thermo	10
dump	1 all custom 10 xyz-mix.dump type id x y z
dump	2 all custom 10 force-mix.dump type id fx fy fz

fix     1 all nve
run     2000
  update every 1 steps, delay 10 steps, check yes
Step Temp PotEng TotEng Press Volume c_msd[4]
0            0   -6680.0933   -6680.0933   -8281.1165    18455.831            0
Averages over the last 101 of 201 rows, steps 1000 to 2000:
Temp PotEng TotEng Press Volume c_msd[4]
276.667 -6710.97 -6680.11 -4550.63 18455.8 0.939777
Loop time of 1541.31 on 16 procs for 2000 steps with 864 atoms

unfix   1

velocity    all create 975.0 1312343 dist gaussian
fix     2 all npt temp 975.0 975.0 $(100.0*dt) aniso 0.0 1.01325 $(1000.0*dt)
fix     2 all npt temp 975.0 975.0 0.10000000000000000555 aniso 0.0 1.01325 $(1000.0*dt)
fix     2 all npt temp 975.0 975.0 0.10000000000000000555 aniso 0.0 1.01325 1
run     3000
Step Temp PotEng TotEng Press Volume c_msd[4]
2000          975   -6711.1501   -6602.3874   -505.35728    18455.831    1.0492005
Averages over the last 151 of 301 rows, steps 3500 to 5000:
Temp PotEng TotEng Press Volume c_msd[4]
973.242 -6595.59 -6487.02 -75.5258 19713.6 6.68947
Loop time of 2496.05 on 16 procs for 3000 steps with 864 atoms

unfix   2

fix     3 all npt temp 975.0 975.0 $(100.0*dt) aniso 1.01325 1.01325 $(1000.0*dt)
fix     3 all npt temp 975.0 975.0 0.10000000000000000555 aniso 1.01325 1.01325 $(1000.0*dt)
fix     3 all npt temp 975.0 975.0 0.10000000000000000555 aniso 1.01325 1.01325 1
run     20000
Step Temp PotEng TotEng Press Volume c_msd[4]
5000    932.48708   -6599.3565   -6495.3362   -1094.7655    19744.597    8.6672776
Averages over the last 1001 of 2001 rows, steps 15000 to 25000:
Temp PotEng TotEng Press Volume c_msd[4]
976.519 -6577.92 -6468.99 -6.927 20348.9 49.8683
Loop time of 16708.8 on 16 procs for 20000 steps with 864 atoms

unfix   3
