LAMMPS (2 Aug 2023)
read_restart    ../structure.ready
Reading restart file ...
  restart file = 2 Aug 2023, LAMMPS = 2 Aug 2023
  restoring atom style full from restart
  orthogonal box = (-0.19987933 -0.17334996 -8.6459149) to (25.130492 25.103962 83.437752)
  pair style chgnet/gpu stores no restart info
  1536 atoms
Finding 1-2 1-3 1-4 neighbors ...
     0 = max # of 1-2 neighbors
     0 = max # of 1-3 neighbors
     0 = max # of 1-4 neighbors
     1 = max # of special neighbors
  read_restart CPU = 0.003 seconds

pair_style      chgnet/gpu /nfs/turbo/coe-venkvis/ziqiw-turbo/LAMMPSs/lammps-ASC/potentials/CHGNET
pair_coeff      * * 0.3.0 Cl K Li

neighbor        0.3 bin
neigh_modify    delay 10

timestep	    0.001
compute	        msd all msd
  fix style: STORE/ATOM, fix ID: msd_COMPUTE_STORE
thermo_style	custom step temp pe etotal press vol c_msd[4]
thermo	        10
dump	        1 all custom 10 xyz-mix.dump type id x y z
dump	        2 all custom 10 force-mix.dump type id fx fy fz

fix             3 gLiquid npt temp 1500 1000.0 $(100.0*dt) z 1.01325 1.01325 $(1000.0*dt) couple none
fix             3 gLiquid npt temp 1500 1000.0 0.10000000000000000555 z 1.01325 1.01325 $(1000.0*dt) couple none
fix             3 gLiquid npt temp 1500 1000.0 0.10000000000000000555 z 1.01325 1.01325 1 couple none
run             10000
All restart file peratom fix info was re-assigned
Step          Temp          PotEng         TotEng         Press          Volume        c_msd[4]
40000   1475.1074     -5374.5374     -5081.8549      3094.8119      58959.67       119.19679
Averages over the last 501 of 1001 rows, steps 45000 to 50000:
Temp PotEng TotEng Press Volume c_msd[4]
1125.74 -5456.36 -5233 3166.73 55627.7 200.796
Loop time of 1873.97 on 1 procs for 10000 steps with 1536 atoms

unfix           3

fix             4 all npt temp 1000.0 1000.0 $(100.0*dt) aniso 1.01325 1.01325 $(1000.0*dt)
fix             4 all npt temp 1000.0 1000.0 0.10000000000000000555 aniso 1.01325 1.01325 $(1000.0*dt)
fix             4 all npt temp 1000.0 1000.0 0.10000000000000000555 aniso 1.01325 1.01325 1
run             30000
Step          Temp          PotEng         TotEng         Press          Volume        c_msd[4]
50000   994.72283     -5487.5823     -5290.215       2964.1924      54149.848      219.21139
Averages over the last 1501 of 3001 rows, steps 65000 to 80000:
Temp PotEng TotEng Press Volume c_msd[4]
999.512 -5422.13 -5223.81 -3.79256 64182.5 433.152
Loop time of 5173.52 on 1 procs for 30000 steps with 1536 atoms

unfix           4

write_data      structure.end.data
System init for write_data ...
write_restart   structure.end
System init for write_restart ...
